CM 2.4 GHz WiFi Yagi Antenna (Fixed Source)
CE
GW	1	21	0	-0.0305	0	0	0.0305	0	1.5e-3
GW	2	19	0.02	-0.029	0	0.02	0.029	0	1.5e-3
GW	3	19	0.05	-0.027	0	0.05	0.027	0	1.5e-3
GW	4	17	0.08	-0.0255	0	0.08	0.0255	0	1.5e-3
GW	5	17	0.11	-0.0245	0	0.11	0.0245	0	1.5e-3
GE	0
EK
EX	0	2	10	0	1	0
GN	-1
FR	0	1	0	0	2450	0
